Version 4
SHEET 1 880 680
WIRE 32 -240 32 -288
WIRE 32 -240 -64 -240
WIRE 176 -240 32 -240
WIRE -64 -192 -64 -240
WIRE 32 -176 32 -240
WIRE 176 -160 176 -240
WIRE -64 -80 -64 -128
WIRE 32 -80 32 -112
WIRE 32 -80 -64 -80
WIRE 176 -16 176 -80
WIRE 480 80 480 16
WIRE 624 80 480 80
WIRE 176 112 176 64
WIRE 272 112 176 112
WIRE 624 112 624 80
WIRE 352 128 336 128
WIRE 480 128 480 80
WIRE 32 160 32 -80
WIRE 176 160 176 112
WIRE 272 160 272 112
WIRE 112 208 96 208
WIRE 336 208 336 128
WIRE 416 208 416 128
WIRE 464 208 416 208
WIRE 624 208 624 176
WIRE 272 272 272 256
WIRE 32 288 32 256
WIRE 96 288 96 208
WIRE 96 288 32 288
WIRE 480 304 480 208
WIRE 544 304 480 304
WIRE 176 336 176 256
WIRE 176 336 160 336
WIRE 288 336 176 336
WIRE 544 336 288 336
WIRE 32 368 32 288
WIRE 176 384 176 336
WIRE 288 384 288 336
WIRE 384 432 352 432
WIRE 464 432 464 208
WIRE 512 432 464 432
WIRE 576 432 576 352
WIRE 576 432 512 432
WIRE 176 480 176 448
WIRE 288 480 176 480
WIRE 176 496 176 480
WIRE 512 496 512 432
WIRE 32 512 32 448
FLAG 624 208 0
FLAG 176 496 0
FLAG 272 272 0
FLAG 32 512 0
SYMBOL OpAmps/LT1395 576 256 R0
SYMATTR InstName U1
SYMBOL Res 464 112 R0
SYMATTR InstName R1
SYMBOL Cap 608 112 R0
SYMATTR InstName C1
SYMBOL npn 352 384 M0
SYMATTR InstName Q1
SYMBOL Cap 160 384 R0
SYMATTR InstName C2
SYMBOL Res 480 416 R90
WINDOW 0 0 56 VBottom 2
WINDOW 3 32 56 VTop 2
SYMATTR InstName R2
SYMBOL pnp 112 256 M180
SYMATTR InstName Q2
SYMBOL npn 336 160 M0
SYMATTR InstName Q3
SYMBOL Res 432 192 R90
WINDOW 0 0 56 VBottom 2
WINDOW 3 32 56 VTop 2
SYMATTR InstName R3
SYMBOL Cap 416 112 R90
WINDOW 0 0 32 VBottom 2
WINDOW 3 32 32 VTop 2
SYMATTR InstName C3
SYMBOL Res 160 -32 R0
SYMATTR InstName R4
SYMATTR Value 100
SYMBOL Res 160 -176 R0
SYMATTR InstName R5
SYMATTR Value 100
SYMBOL Cap -80 -192 R0
SYMATTR InstName C4
SYMBOL Diode 48 -112 R180
WINDOW 0 24 64 Left 2
WINDOW 3 24 0 Left 2
SYMATTR InstName D1
SYMBOL pnp 96 256 R180
SYMATTR InstName Q4
SYMBOL Res 16 352 R0
SYMATTR InstName R6
